REMARK  6 active torsions:
REMARK  status: ('A' for Active; 'I' for Inactive)
REMARK    1  A    between atoms: C03_1  and  C10_8 
REMARK    2  A    between atoms: C04_2  and  C08_6 
REMARK    3  A    between atoms: C15_13  and  C18_16 
REMARK    4  A    between atoms: C18_16  and  C20_18 
REMARK    5  A    between atoms: C20_18  and  C21_19 
REMARK    6  A    between atoms: C21_19  and  C22_20 
ROOT
ATOM      1  C08 CBD B1001     139.589 145.788 172.167  1.00 27.96     0.033 A 
ATOM      2  C11 CBD B1001     138.839 146.927 172.435  1.00 27.96     0.129 A 
ATOM      3  C12 CBD B1001     138.937 144.624 171.735  1.00 27.96     0.129 A 
ATOM      4  C15 CBD B1001     136.801 145.761 171.923  1.00 27.96    -0.018 A 
ATOM      5  C16 CBD B1001     137.452 146.918 172.332  1.00 27.96     0.023 A 
ATOM      6  C17 CBD B1001     137.541 144.614 171.628  1.00 27.96     0.023 A 
ATOM      7  O01 CBD B1001     139.510 148.087 172.848  1.00 27.96    -0.190 OA
ATOM      8  O02 CBD B1001     139.640 143.449 171.428  1.00 27.96    -0.190 OA
ENDROOT
BRANCH   1   9
ATOM      9  C04 CBD B1001     141.118 145.983 172.303  1.00 27.96     0.051 C 
ATOM     10  C07 CBD B1001     141.634 145.912 170.882  1.00 27.96    -0.030 C 
ATOM     11  C09 CBD B1001     142.833 146.409 170.704  1.00 27.96    -0.048 C 
ATOM     12  C06 CBD B1001     143.951 146.066 171.691  1.00 27.96     0.022 C 
ATOM     13  C13 CBD B1001     142.907 147.760 169.999  1.00 27.96     0.026 C 
ATOM     14  C05 CBD B1001     143.456 145.547 173.058  1.00 27.96     0.009 C 
ATOM     15  C03 CBD B1001     142.011 145.017 173.091  1.00 27.96     0.027 C 
BRANCH  15  16
ATOM     16  C10 CBD B1001     141.650 144.894 174.576  1.00 27.96    -0.044 C 
ATOM     17  C19 CBD B1001     142.138 145.758 175.468  1.00 27.96    -0.009 C 
ATOM     18  C14 CBD B1001     140.746 143.734 175.037  1.00 27.96     0.026 C 
ENDBRANCH  15  16
ENDBRANCH   1   9
BRANCH   4  19
ATOM     19  C18 CBD B1001     135.256 145.772 171.813  1.00 27.96     0.026 C 
BRANCH  19  20
ATOM     20  C20 CBD B1001     134.807 147.111 171.170  1.00 27.96     0.005 C 
BRANCH  20  21
ATOM     21  C21 CBD B1001     133.978 147.943 172.190  1.00 27.96     0.000 C 
BRANCH  21  22
ATOM     22  C22 CBD B1001     133.010 148.874 171.422  1.00 27.96     0.000 C 
ATOM     23  C23 CBD B1001     131.726 148.088 171.061  1.00 27.96     0.000 C 
ENDBRANCH  21  22
ENDBRANCH  20  21
ENDBRANCH  19  20
ENDBRANCH   4  19
TORSDOF 6
