MODEL 1
REMARK VINA RESULT:      -8.6      0.000      0.000
REMARK  6 active torsions:
REMARK  status: ('A' for Active; 'I' for Inactive)
REMARK    1  A    between atoms: C03_1  and  C10_8 
REMARK    2  A    between atoms: C04_2  and  C08_6 
REMARK    3  A    between atoms: C15_13  and  C18_16 
REMARK    4  A    between atoms: C18_16  and  C20_18 
REMARK    5  A    between atoms: C20_18  and  C21_19 
REMARK    6  A    between atoms: C21_19  and  C22_20 
ROOT
ATOM      1  C08 CBD B1001     139.987 145.839 172.408  1.00 27.96     0.033 A 
ATOM      2  C11 CBD B1001     139.191 146.968 172.562  1.00 27.96     0.129 A 
ATOM      3  C12 CBD B1001     139.379 144.602 172.148  1.00 27.96     0.129 A 
ATOM      4  C15 CBD B1001     137.197 145.657 172.275  1.00 27.96    -0.018 A 
ATOM      5  C16 CBD B1001     137.803 146.884 172.513  1.00 27.96     0.023 A 
ATOM      6  C17 CBD B1001     137.982 144.517 172.096  1.00 27.96     0.023 A 
ATOM      7  O01 CBD B1001     139.817 148.199 172.804  1.00 27.96    -0.190 OA
ATOM      8  O02 CBD B1001     140.128 143.431 171.962  1.00 27.96    -0.190 OA
ENDROOT
BRANCH   1   9
ATOM      9  C04 CBD B1001     141.508 146.117 172.462  1.00 27.96     0.051 C 
ATOM     10  C07 CBD B1001     141.972 145.948 171.031  1.00 27.96    -0.030 C 
ATOM     11  C09 CBD B1001     143.136 146.484 170.760  1.00 27.96    -0.048 C 
ATOM     12  C06 CBD B1001     144.307 146.281 171.724  1.00 27.96     0.022 C 
ATOM     13  C13 CBD B1001     143.114 147.771 169.941  1.00 27.96     0.026 C 
ATOM     14  C05 CBD B1001     143.893 145.860 173.150  1.00 27.96     0.009 C 
ATOM     15  C03 CBD B1001     142.479 145.267 173.290  1.00 27.96     0.027 C 
BRANCH  15  16
ATOM     16  C10 CBD B1001     142.182 145.256 174.794  1.00 27.96    -0.044 C 
ATOM     17  C19 CBD B1001     141.563 144.217 175.357  1.00 27.96    -0.009 C 
ATOM     18  C14 CBD B1001     142.572 146.479 175.646  1.00 27.96     0.026 C 
ENDBRANCH  15  16
ENDBRANCH   1   9
BRANCH   4  19
ATOM     19  C18 CBD B1001     135.651 145.586 172.222  1.00 27.96     0.026 C 
BRANCH  19  20
ATOM     20  C20 CBD B1001     135.220 145.007 170.848  1.00 27.96     0.005 C 
BRANCH  20  21
ATOM     21  C21 CBD B1001     134.638 146.137 169.951  1.00 27.96     0.000 C 
BRANCH  21  22
ATOM     22  C22 CBD B1001     134.355 147.385 170.821  1.00 27.96     0.000 C 
ATOM     23  C23 CBD B1001     134.846 148.649 170.073  1.00 27.96     0.000 C 
ENDBRANCH  21  22
ENDBRANCH  20  21
ENDBRANCH  19  20
ENDBRANCH   4  19
TORSDOF 6
ENDMDL
MODEL 2
REMARK VINA RESULT:      -7.7      0.926      3.279
REMARK  6 active torsions:
REMARK  status: ('A' for Active; 'I' for Inactive)
REMARK    1  A    between atoms: C03_1  and  C10_8 
REMARK    2  A    between atoms: C04_2  and  C08_6 
REMARK    3  A    between atoms: C15_13  and  C18_16 
REMARK    4  A    between atoms: C18_16  and  C20_18 
REMARK    5  A    between atoms: C20_18  and  C21_19 
REMARK    6  A    between atoms: C21_19  and  C22_20 
ROOT
ATOM      1  C08 CBD B1001     139.743 145.710 172.086  1.00 27.96     0.033 A 
ATOM      2  C11 CBD B1001     139.183 144.533 171.602  1.00 27.96     0.129 A 
ATOM      3  C12 CBD B1001     138.902 146.773 172.443  1.00 27.96     0.129 A 
ATOM      4  C15 CBD B1001     136.975 145.469 171.752  1.00 27.96    -0.018 A 
ATOM      5  C16 CBD B1001     137.810 144.411 171.418  1.00 27.96     0.023 A 
ATOM      6  C17 CBD B1001     137.519 146.651 172.260  1.00 27.96     0.023 A 
ATOM      7  O01 CBD B1001     140.039 143.474 171.269  1.00 27.96    -0.190 OA
ATOM      8  O02 CBD B1001     139.405 147.978 172.957  1.00 27.96    -0.190 OA
ENDROOT
BRANCH   1   9
ATOM      9  C04 CBD B1001     141.281 145.663 172.257  1.00 27.96     0.051 C 
ATOM     10  C07 CBD B1001     141.488 145.462 173.742  1.00 27.96    -0.030 C 
ATOM     11  C09 CBD B1001     142.677 145.029 174.081  1.00 27.96    -0.048 C 
ATOM     12  C06 CBD B1001     143.922 145.659 173.453  1.00 27.96     0.022 C 
ATOM     13  C13 CBD B1001     142.768 143.566 174.506  1.00 27.96     0.026 C 
ATOM     14  C05 CBD B1001     143.654 146.424 172.139  1.00 27.96     0.009 C 
ATOM     15  C03 CBD B1001     142.193 146.840 171.891  1.00 27.96     0.027 C 
BRANCH  15  16
ATOM     16  C10 CBD B1001     142.126 147.255 170.416  1.00 27.96    -0.044 C 
ATOM     17  C19 CBD B1001     142.374 146.369 169.449  1.00 27.96    -0.009 C 
ATOM     18  C14 CBD B1001     141.806 148.720 170.060  1.00 27.96     0.026 C 
ENDBRANCH  15  16
ENDBRANCH   1   9
BRANCH   4  19
ATOM     19  C18 CBD B1001     135.449 145.312 171.540  1.00 27.96     0.026 C 
BRANCH  19  20
ATOM     20  C20 CBD B1001     135.100 145.708 170.081  1.00 27.96     0.005 C 
BRANCH  20  21
ATOM     21  C21 CBD B1001     134.131 146.925 170.074  1.00 27.96     0.000 C 
BRANCH  21  22
ATOM     22  C22 CBD B1001     134.955 148.234 170.079  1.00 27.96     0.000 C 
ATOM     23  C23 CBD B1001     134.733 148.971 171.422  1.00 27.96     0.000 C 
ENDBRANCH  21  22
ENDBRANCH  20  21
ENDBRANCH  19  20
ENDBRANCH   4  19
TORSDOF 6
ENDMDL
MODEL 3
REMARK VINA RESULT:      -6.7      1.970      7.796
REMARK  6 active torsions:
REMARK  status: ('A' for Active; 'I' for Inactive)
REMARK    1  A    between atoms: C03_1  and  C10_8 
REMARK    2  A    between atoms: C04_2  and  C08_6 
REMARK    3  A    between atoms: C15_13  and  C18_16 
REMARK    4  A    between atoms: C18_16  and  C20_18 
REMARK    5  A    between atoms: C20_18  and  C21_19 
REMARK    6  A    between atoms: C21_19  and  C22_20 
ROOT
ATOM      1  C08 CBD B1001     136.312 145.858 171.585  1.00 27.96     0.033 A 
ATOM      2  C11 CBD B1001     137.115 146.833 172.164  1.00 27.96     0.129 A 
ATOM      3  C12 CBD B1001     136.911 144.718 171.029  1.00 27.96     0.129 A 
ATOM      4  C15 CBD B1001     139.099 145.604 171.590  1.00 27.96    -0.018 A 
ATOM      5  C16 CBD B1001     138.502 146.723 172.157  1.00 27.96     0.023 A 
ATOM      6  C17 CBD B1001     138.306 144.604 171.024  1.00 27.96     0.023 A 
ATOM      7  O01 CBD B1001     136.498 147.957 172.731  1.00 27.96    -0.190 OA
ATOM      8  O02 CBD B1001     136.153 143.688 170.450  1.00 27.96    -0.190 OA
ENDROOT
BRANCH   1   9
ATOM      9  C04 CBD B1001     134.793 146.125 171.708  1.00 27.96     0.051 C 
ATOM     10  C07 CBD B1001     134.368 145.326 172.920  1.00 27.96    -0.030 C 
ATOM     11  C09 CBD B1001     133.217 145.678 173.438  1.00 27.96    -0.048 C 
ATOM     12  C06 CBD B1001     132.017 145.929 172.522  1.00 27.96     0.022 C 
ATOM     13  C13 CBD B1001     133.275 146.455 174.750  1.00 27.96     0.026 C 
ATOM     14  C05 CBD B1001     132.388 146.199 171.048  1.00 27.96     0.009 C 
ATOM     15  C03 CBD B1001     133.791 145.738 170.614  1.00 27.96     0.027 C 
BRANCH  15  16
ATOM     16  C10 CBD B1001     134.045 146.409 169.259  1.00 27.96    -0.044 C 
ATOM     17  C19 CBD B1001     134.320 145.676 168.178  1.00 27.96    -0.009 C 
ATOM     18  C14 CBD B1001     134.021 147.947 169.165  1.00 27.96     0.026 C 
ENDBRANCH  15  16
ENDBRANCH   1   9
BRANCH   4  19
ATOM     19  C18 CBD B1001     140.645 145.500 171.594  1.00 27.96     0.026 C 
BRANCH  19  20
ATOM     20  C20 CBD B1001     141.233 146.761 172.281  1.00 27.96     0.005 C 
BRANCH  20  21
ATOM     21  C21 CBD B1001     142.786 146.683 172.303  1.00 27.96     0.000 C 
BRANCH  21  22
ATOM     22  C22 CBD B1001     143.257 146.293 173.724  1.00 27.96     0.000 C 
ATOM     23  C23 CBD B1001     142.296 146.914 174.768  1.00 27.96     0.000 C 
ENDBRANCH  21  22
ENDBRANCH  20  21
ENDBRANCH  19  20
ENDBRANCH   4  19
TORSDOF 6
ENDMDL
MODEL 4
REMARK VINA RESULT:      -6.6      2.001      7.587
REMARK  6 active torsions:
REMARK  status: ('A' for Active; 'I' for Inactive)
REMARK    1  A    between atoms: C03_1  and  C10_8 
REMARK    2  A    between atoms: C04_2  and  C08_6 
REMARK    3  A    between atoms: C15_13  and  C18_16 
REMARK    4  A    between atoms: C18_16  and  C20_18 
REMARK    5  A    between atoms: C20_18  and  C21_19 
REMARK    6  A    between atoms: C21_19  and  C22_20 
ROOT
ATOM      1  C08 CBD B1001     136.154 146.038 171.393  1.00 27.96     0.033 A 
ATOM      2  C11 CBD B1001     136.759 144.873 170.936  1.00 27.96     0.129 A 
ATOM      3  C12 CBD B1001     136.906 146.949 172.149  1.00 27.96     0.129 A 
ATOM      4  C15 CBD B1001     138.820 145.463 172.022  1.00 27.96    -0.018 A 
ATOM      5  C16 CBD B1001     138.078 144.571 171.257  1.00 27.96     0.023 A 
ATOM      6  C17 CBD B1001     138.235 146.648 172.471  1.00 27.96     0.023 A 
ATOM      7  O01 CBD B1001     135.997 143.983 170.166  1.00 27.96    -0.190 OA
ATOM      8  O02 CBD B1001     136.359 148.152 172.621  1.00 27.96    -0.190 OA
ENDROOT
BRANCH   1   9
ATOM      9  C04 CBD B1001     134.694 146.229 170.918  1.00 27.96     0.051 C 
ATOM     10  C07 CBD B1001     134.721 147.520 170.129  1.00 27.96    -0.030 C 
ATOM     11  C09 CBD B1001     133.700 147.700 169.328  1.00 27.96    -0.048 C 
ATOM     12  C06 CBD B1001     132.282 147.416 169.831  1.00 27.96     0.022 C 
ATOM     13  C13 CBD B1001     133.968 147.514 167.838  1.00 27.96     0.026 C 
ATOM     14  C05 CBD B1001     132.219 146.504 171.075  1.00 27.96     0.009 C 
ATOM     15  C03 CBD B1001     133.519 146.391 171.891  1.00 27.96     0.027 C 
BRANCH  15  16
ATOM     16  C10 CBD B1001     133.313 145.200 172.834  1.00 27.96    -0.044 C 
ATOM     17  C19 CBD B1001     132.995 143.998 172.351  1.00 27.96    -0.009 C 
ATOM     18  C14 CBD B1001     133.437 145.414 174.355  1.00 27.96     0.026 C 
ENDBRANCH  15  16
ENDBRANCH   1   9
BRANCH   4  19
ATOM     19  C18 CBD B1001     140.288 145.109 172.368  1.00 27.96     0.026 C 
BRANCH  19  20
ATOM     20  C20 CBD B1001     141.219 145.709 171.281  1.00 27.96     0.005 C 
BRANCH  20  21
ATOM     21  C21 CBD B1001     141.960 146.957 171.841  1.00 27.96     0.000 C 
BRANCH  21  22
ATOM     22  C22 CBD B1001     142.280 146.732 173.337  1.00 27.96     0.000 C 
ATOM     23  C23 CBD B1001     143.742 146.245 173.478  1.00 27.96     0.000 C 
ENDBRANCH  21  22
ENDBRANCH  20  21
ENDBRANCH  19  20
ENDBRANCH   4  19
TORSDOF 6
ENDMDL
MODEL 5
REMARK VINA RESULT:      -6.5      2.610      8.036
REMARK  6 active torsions:
REMARK  status: ('A' for Active; 'I' for Inactive)
REMARK    1  A    between atoms: C03_1  and  C10_8 
REMARK    2  A    between atoms: C04_2  and  C08_6 
REMARK    3  A    between atoms: C15_13  and  C18_16 
REMARK    4  A    between atoms: C18_16  and  C20_18 
REMARK    5  A    between atoms: C20_18  and  C21_19 
REMARK    6  A    between atoms: C21_19  and  C22_20 
ROOT
ATOM      1  C08 CBD B1001     134.956 147.275 170.755  1.00 27.96     0.033 A 
ATOM      2  C11 CBD B1001     135.123 146.080 170.064  1.00 27.96     0.129 A 
ATOM      3  C12 CBD B1001     135.857 147.607 171.777  1.00 27.96     0.129 A 
ATOM      4  C15 CBD B1001     137.017 145.504 171.427  1.00 27.96    -0.018 A 
ATOM      5  C16 CBD B1001     136.134 145.187 170.402  1.00 27.96     0.023 A 
ATOM      6  C17 CBD B1001     136.877 146.710 172.116  1.00 27.96     0.023 A 
ATOM      7  O01 CBD B1001     134.224 145.774 169.033  1.00 27.96    -0.190 OA
ATOM      8  O02 CBD B1001     135.755 148.808 172.496  1.00 27.96    -0.190 OA
ENDROOT
BRANCH   1   9
ATOM      9  C04 CBD B1001     133.802 148.161 170.229  1.00 27.96     0.051 C 
ATOM     10  C07 CBD B1001     134.476 149.141 169.294  1.00 27.96    -0.030 C 
ATOM     11  C09 CBD B1001     133.672 149.748 168.456  1.00 27.96    -0.048 C 
ATOM     12  C06 CBD B1001     132.346 150.322 168.958  1.00 27.96     0.022 C 
ATOM     13  C13 CBD B1001     133.734 149.283 167.004  1.00 27.96     0.026 C 
ATOM     14  C05 CBD B1001     131.862 149.730 170.299  1.00 27.96     0.009 C 
ATOM     15  C03 CBD B1001     132.938 149.032 171.150  1.00 27.96     0.027 C 
BRANCH  15  16
ATOM     16  C10 CBD B1001     132.173 148.248 172.223  1.00 27.96    -0.044 C 
ATOM     17  C19 CBD B1001     131.312 147.289 171.878  1.00 27.96    -0.009 C 
ATOM     18  C14 CBD B1001     132.377 148.607 173.707  1.00 27.96     0.026 C 
ENDBRANCH  15  16
ENDBRANCH   1   9
BRANCH   4  19
ATOM     19  C18 CBD B1001     138.137 144.497 171.786  1.00 27.96     0.026 C 
BRANCH  19  20
ATOM     20  C20 CBD B1001     138.908 145.023 173.026  1.00 27.96     0.005 C 
BRANCH  20  21
ATOM     21  C21 CBD B1001     140.434 145.069 172.727  1.00 27.96     0.000 C 
BRANCH  21  22
ATOM     22  C22 CBD B1001     140.784 146.421 172.061  1.00 27.96     0.000 C 
ATOM     23  C23 CBD B1001     140.310 147.577 172.975  1.00 27.96     0.000 C 
ENDBRANCH  21  22
ENDBRANCH  20  21
ENDBRANCH  19  20
ENDBRANCH   4  19
TORSDOF 6
ENDMDL
MODEL 6
REMARK VINA RESULT:      -6.4      2.782      8.434
REMARK  6 active torsions:
REMARK  status: ('A' for Active; 'I' for Inactive)
REMARK    1  A    between atoms: C03_1  and  C10_8 
REMARK    2  A    between atoms: C04_2  and  C08_6 
REMARK    3  A    between atoms: C15_13  and  C18_16 
REMARK    4  A    between atoms: C18_16  and  C20_18 
REMARK    5  A    between atoms: C20_18  and  C21_19 
REMARK    6  A    between atoms: C21_19  and  C22_20 
ROOT
ATOM      1  C08 CBD B1001     134.672 147.286 170.970  1.00 27.96     0.033 A 
ATOM      2  C11 CBD B1001     135.780 147.554 171.765  1.00 27.96     0.129 A 
ATOM      3  C12 CBD B1001     134.614 146.080 170.257  1.00 27.96     0.129 A 
ATOM      4  C15 CBD B1001     136.809 145.484 171.106  1.00 27.96    -0.018 A 
ATOM      5  C16 CBD B1001     136.853 146.672 171.826  1.00 27.96     0.023 A 
ATOM      6  C17 CBD B1001     135.693 145.189 170.320  1.00 27.96     0.023 A 
ATOM      7  O01 CBD B1001     135.811 148.757 172.485  1.00 27.96    -0.190 OA
ATOM      8  O02 CBD B1001     133.514 145.742 169.455  1.00 27.96    -0.190 OA
ENDROOT
BRANCH   1   9
ATOM      9  C04 CBD B1001     133.559 148.359 171.043  1.00 27.96     0.051 C 
ATOM     10  C07 CBD B1001     132.506 147.749 171.943  1.00 27.96    -0.030 C 
ATOM     11  C09 CBD B1001     131.648 148.601 172.446  1.00 27.96    -0.048 C 
ATOM     12  C06 CBD B1001     131.021 149.668 171.546  1.00 27.96     0.022 C 
ATOM     13  C13 CBD B1001     131.819 148.940 173.924  1.00 27.96     0.026 C 
ATOM     14  C05 CBD B1001     131.802 149.939 170.242  1.00 27.96     0.009 C 
ATOM     15  C03 CBD B1001     132.786 148.838 169.808  1.00 27.96     0.027 C 
BRANCH  15  16
ATOM     16  C10 CBD B1001     133.663 149.473 168.722  1.00 27.96    -0.044 C 
ATOM     17  C19 CBD B1001     134.308 150.618 168.953  1.00 27.96    -0.009 C 
ATOM     18  C14 CBD B1001     133.761 148.794 167.342  1.00 27.96     0.026 C 
ENDBRANCH  15  16
ENDBRANCH   1   9
BRANCH   4  19
ATOM     19  C18 CBD B1001     138.014 144.515 171.189  1.00 27.96     0.026 C 
BRANCH  19  20
ATOM     20  C20 CBD B1001     139.033 145.066 172.221  1.00 27.96     0.005 C 
BRANCH  20  21
ATOM     21  C21 CBD B1001     140.375 145.412 171.515  1.00 27.96     0.000 C 
BRANCH  21  22
ATOM     22  C22 CBD B1001     140.581 146.945 171.535  1.00 27.96     0.000 C 
ATOM     23  C23 CBD B1001     140.278 147.482 172.955  1.00 27.96     0.000 C 
ENDBRANCH  21  22
ENDBRANCH  20  21
ENDBRANCH  19  20
ENDBRANCH   4  19
TORSDOF 6
ENDMDL
MODEL 7
REMARK VINA RESULT:      -6.2      6.909      8.542
REMARK  6 active torsions:
REMARK  status: ('A' for Active; 'I' for Inactive)
REMARK    1  A    between atoms: C03_1  and  C10_8 
REMARK    2  A    between atoms: C04_2  and  C08_6 
REMARK    3  A    between atoms: C15_13  and  C18_16 
REMARK    4  A    between atoms: C18_16  and  C20_18 
REMARK    5  A    between atoms: C20_18  and  C21_19 
REMARK    6  A    between atoms: C21_19  and  C22_20 
ROOT
ATOM      1  C08 CBD B1001     136.103 142.957 179.320  1.00 27.96     0.033 A 
ATOM      2  C11 CBD B1001     135.923 144.334 179.274  1.00 27.96     0.129 A 
ATOM      3  C12 CBD B1001     134.983 142.116 179.255  1.00 27.96     0.129 A 
ATOM      4  C15 CBD B1001     133.537 144.064 179.172  1.00 27.96    -0.018 A 
ATOM      5  C16 CBD B1001     134.650 144.893 179.216  1.00 27.96     0.023 A 
ATOM      6  C17 CBD B1001     133.701 142.677 179.195  1.00 27.96     0.023 A 
ATOM      7  O01 CBD B1001     137.056 145.159 179.321  1.00 27.96    -0.190 OA
ATOM      8  O02 CBD B1001     135.101 140.718 179.276  1.00 27.96    -0.190 OA
ENDROOT
BRANCH   1   9
ATOM      9  C04 CBD B1001     137.584 142.508 179.352  1.00 27.96     0.051 C 
ATOM     10  C07 CBD B1001     137.855 142.007 177.950  1.00 27.96    -0.030 C 
ATOM     11  C09 CBD B1001     139.122 141.918 177.630  1.00 27.96    -0.048 C 
ATOM     12  C06 CBD B1001     140.111 141.292 178.617  1.00 27.96     0.022 C 
ATOM     13  C13 CBD B1001     139.657 142.985 176.680  1.00 27.96     0.026 C 
ATOM     14  C05 CBD B1001     139.613 141.249 180.077  1.00 27.96     0.009 C 
ATOM     15  C03 CBD B1001     138.092 141.390 180.270  1.00 27.96     0.027 C 
BRANCH  15  16
ATOM     16  C10 CBD B1001     137.889 141.662 181.766  1.00 27.96    -0.044 C 
ATOM     17  C19 CBD B1001     136.733 141.363 182.360  1.00 27.96    -0.009 C 
ATOM     18  C14 CBD B1001     139.025 142.323 182.571  1.00 27.96     0.026 C 
ENDBRANCH  15  16
ENDBRANCH   1   9
BRANCH   4  19
ATOM     19  C18 CBD B1001     132.129 144.706 179.106  1.00 27.96     0.026 C 
BRANCH  19  20
ATOM     20  C20 CBD B1001     132.275 146.249 179.184  1.00 27.96     0.005 C 
BRANCH  20  21
ATOM     21  C21 CBD B1001     131.283 146.930 178.199  1.00 27.96     0.000 C 
BRANCH  21  22
ATOM     22  C22 CBD B1001     131.760 146.692 176.747  1.00 27.96     0.000 C 
ATOM     23  C23 CBD B1001     133.138 147.369 176.546  1.00 27.96     0.000 C 
ENDBRANCH  21  22
ENDBRANCH  20  21
ENDBRANCH  19  20
ENDBRANCH   4  19
TORSDOF 6
ENDMDL
MODEL 8
REMARK VINA RESULT:      -6.2      8.815     11.453
REMARK  6 active torsions:
REMARK  status: ('A' for Active; 'I' for Inactive)
REMARK    1  A    between atoms: C03_1  and  C10_8 
REMARK    2  A    between atoms: C04_2  and  C08_6 
REMARK    3  A    between atoms: C15_13  and  C18_16 
REMARK    4  A    between atoms: C18_16  and  C20_18 
REMARK    5  A    between atoms: C20_18  and  C21_19 
REMARK    6  A    between atoms: C21_19  and  C22_20 
ROOT
ATOM      1  C08 CBD B1001     137.060 140.155 180.375  1.00 27.96     0.033 A 
ATOM      2  C11 CBD B1001     136.085 139.354 179.794  1.00 27.96     0.129 A 
ATOM      3  C12 CBD B1001     137.864 139.626 181.395  1.00 27.96     0.129 A 
ATOM      4  C15 CBD B1001     136.640 137.534 181.262  1.00 27.96    -0.018 A 
ATOM      5  C16 CBD B1001     135.859 138.056 180.239  1.00 27.96     0.023 A 
ATOM      6  C17 CBD B1001     137.640 138.318 181.843  1.00 27.96     0.023 A 
ATOM      7  O01 CBD B1001     135.303 139.894 178.763  1.00 27.96    -0.190 OA
ATOM      8  O02 CBD B1001     138.880 140.377 182.006  1.00 27.96    -0.190 OA
ENDROOT
BRANCH   1   9
ATOM      9  C04 CBD B1001     137.196 141.559 179.739  1.00 27.96     0.051 C 
ATOM     10  C07 CBD B1001     138.688 141.756 179.579  1.00 27.96    -0.030 C 
ATOM     11  C09 CBD B1001     139.034 142.699 178.737  1.00 27.96    -0.048 C 
ATOM     12  C06 CBD B1001     138.323 144.053 178.780  1.00 27.96     0.022 C 
ATOM     13  C13 CBD B1001     139.584 142.235 177.392  1.00 27.96     0.026 C 
ATOM     14  C05 CBD B1001     136.954 144.030 179.493  1.00 27.96     0.009 C 
ATOM     15  C03 CBD B1001     136.706 142.836 180.433  1.00 27.96     0.027 C 
BRANCH  15  16
ATOM     16  C10 CBD B1001     135.203 142.852 180.734  1.00 27.96    -0.044 C 
ATOM     17  C19 CBD B1001     134.365 143.559 179.974  1.00 27.96    -0.009 C 
ATOM     18  C14 CBD B1001     134.672 142.073 181.953  1.00 27.96     0.026 C 
ENDBRANCH  15  16
ENDBRANCH   1   9
BRANCH   4  19
ATOM     19  C18 CBD B1001     136.374 136.086 181.743  1.00 27.96     0.026 C 
BRANCH  19  20
ATOM     20  C20 CBD B1001     136.121 135.184 180.506  1.00 27.96     0.005 C 
BRANCH  20  21
ATOM     21  C21 CBD B1001     137.426 135.042 179.671  1.00 27.96     0.000 C 
BRANCH  21  22
ATOM     22  C22 CBD B1001     137.082 134.453 178.283  1.00 27.96     0.000 C 
ATOM     23  C23 CBD B1001     135.678 134.942 177.855  1.00 27.96     0.000 C 
ENDBRANCH  21  22
ENDBRANCH  20  21
ENDBRANCH  19  20
ENDBRANCH   4  19
TORSDOF 6
ENDMDL
MODEL 9
REMARK VINA RESULT:      -6.1      3.495      6.656
REMARK  6 active torsions:
REMARK  status: ('A' for Active; 'I' for Inactive)
REMARK    1  A    between atoms: C03_1  and  C10_8 
REMARK    2  A    between atoms: C04_2  and  C08_6 
REMARK    3  A    between atoms: C15_13  and  C18_16 
REMARK    4  A    between atoms: C18_16  and  C20_18 
REMARK    5  A    between atoms: C20_18  and  C21_19 
REMARK    6  A    between atoms: C21_19  and  C22_20 
ROOT
ATOM      1  C08 CBD B1001     134.926 147.413 170.435  1.00 27.96     0.033 A 
ATOM      2  C11 CBD B1001     134.878 148.788 170.634  1.00 27.96     0.129 A 
ATOM      3  C12 CBD B1001     134.391 146.872 169.257  1.00 27.96     0.129 A 
ATOM      4  C15 CBD B1001     133.716 149.095 168.553  1.00 27.96    -0.018 A 
ATOM      5  C16 CBD B1001     134.264 149.629 169.712  1.00 27.96     0.023 A 
ATOM      6  C17 CBD B1001     133.776 147.718 168.326  1.00 27.96     0.023 A 
ATOM      7  O01 CBD B1001     135.434 149.313 171.810  1.00 27.96    -0.190 OA
ATOM      8  O02 CBD B1001     134.429 145.495 168.988  1.00 27.96    -0.190 OA
ENDROOT
BRANCH   1   9
ATOM      9  C04 CBD B1001     135.670 146.632 171.545  1.00 27.96     0.051 C 
ATOM     10  C07 CBD B1001     137.034 146.347 170.954  1.00 27.96    -0.030 C 
ATOM     11  C09 CBD B1001     137.957 146.025 171.825  1.00 27.96    -0.048 C 
ATOM     12  C06 CBD B1001     137.638 145.016 172.931  1.00 27.96     0.022 C 
ATOM     13  C13 CBD B1001     139.004 147.093 172.128  1.00 27.96     0.026 C 
ATOM     14  C05 CBD B1001     136.130 144.824 173.201  1.00 27.96     0.009 C 
ATOM     15  C03 CBD B1001     135.184 145.278 172.075  1.00 27.96     0.027 C 
BRANCH  15  16
ATOM     16  C10 CBD B1001     133.784 145.312 172.701  1.00 27.96    -0.044 C 
ATOM     17  C19 CBD B1001     133.565 145.970 173.840  1.00 27.96    -0.009 C 
ATOM     18  C14 CBD B1001     132.637 144.542 172.019  1.00 27.96     0.026 C 
ENDBRANCH  15  16
ENDBRANCH   1   9
BRANCH   4  19
ATOM     19  C18 CBD B1001     133.039 150.048 167.538  1.00 27.96     0.026 C 
BRANCH  19  20
ATOM     20  C20 CBD B1001     133.569 149.727 166.115  1.00 27.96     0.005 C 
BRANCH  20  21
ATOM     21  C21 CBD B1001     134.994 150.324 165.928  1.00 27.96     0.000 C 
BRANCH  21  22
ATOM     22  C22 CBD B1001     134.895 151.634 165.110  1.00 27.96     0.000 C 
ATOM     23  C23 CBD B1001     135.028 152.843 166.068  1.00 27.96     0.000 C 
ENDBRANCH  21  22
ENDBRANCH  20  21
ENDBRANCH  19  20
ENDBRANCH   4  19
TORSDOF 6
ENDMDL
MODEL 10
REMARK VINA RESULT:      -6.1      6.202     10.949
REMARK  6 active torsions:
REMARK  status: ('A' for Active; 'I' for Inactive)
REMARK    1  A    between atoms: C03_1  and  C10_8 
REMARK    2  A    between atoms: C04_2  and  C08_6 
REMARK    3  A    between atoms: C15_13  and  C18_16 
REMARK    4  A    between atoms: C18_16  and  C20_18 
REMARK    5  A    between atoms: C20_18  and  C21_19 
REMARK    6  A    between atoms: C21_19  and  C22_20 
ROOT
ATOM      1  C08 CBD B1001     133.819 152.596 167.686  1.00 27.96     0.033 A 
ATOM      2  C11 CBD B1001     133.289 152.086 168.865  1.00 27.96     0.129 A 
ATOM      3  C12 CBD B1001     134.394 151.718 166.757  1.00 27.96     0.129 A 
ATOM      4  C15 CBD B1001     133.953 149.859 168.254  1.00 27.96    -0.018 A 
ATOM      5  C16 CBD B1001     133.366 150.730 169.163  1.00 27.96     0.023 A 
ATOM      6  C17 CBD B1001     134.470 150.351 167.053  1.00 27.96     0.023 A 
ATOM      7  O01 CBD B1001     132.701 152.978 169.774  1.00 27.96    -0.190 OA
ATOM      8  O02 CBD B1001     134.926 152.168 165.538  1.00 27.96    -0.190 OA
ENDROOT
BRANCH   1   9
ATOM      9  C04 CBD B1001     133.620 154.120 167.503  1.00 27.96     0.051 C 
ATOM     10  C07 CBD B1001     132.567 154.235 166.422  1.00 27.96    -0.030 C 
ATOM     11  C09 CBD B1001     131.972 155.400 166.352  1.00 27.96    -0.048 C 
ATOM     12  C06 CBD B1001     132.805 156.682 166.418  1.00 27.96     0.022 C 
ATOM     13  C13 CBD B1001     130.542 155.462 166.879  1.00 27.96     0.026 C 
ATOM     14  C05 CBD B1001     134.211 156.497 167.028  1.00 27.96     0.009 C 
ATOM     15  C03 CBD B1001     134.748 155.055 167.049  1.00 27.96     0.027 C 
BRANCH  15  16
ATOM     16  C10 CBD B1001     135.962 155.080 167.986  1.00 27.96    -0.044 C 
ATOM     17  C19 CBD B1001     137.199 155.161 167.494  1.00 27.96    -0.009 C 
ATOM     18  C14 CBD B1001     135.740 154.969 169.507  1.00 27.96     0.026 C 
ENDBRANCH  15  16
ENDBRANCH   1   9
BRANCH   4  19
ATOM     19  C18 CBD B1001     134.027 148.352 168.603  1.00 27.96     0.026 C 
BRANCH  19  20
ATOM     20  C20 CBD B1001     134.169 148.199 170.141  1.00 27.96     0.005 C 
BRANCH  20  21
ATOM     21  C21 CBD B1001     135.329 147.217 170.476  1.00 27.96     0.000 C 
BRANCH  21  22
ATOM     22  C22 CBD B1001     134.996 145.820 169.903  1.00 27.96     0.000 C 
ATOM     23  C23 CBD B1001     135.909 144.764 170.572  1.00 27.96     0.000 C 
ENDBRANCH  21  22
ENDBRANCH  20  21
ENDBRANCH  19  20
ENDBRANCH   4  19
TORSDOF 6
ENDMDL
